# generated using pymatgen
data_InGa(CuSe2)2
_symmetry_space_group_name_H-M   'P 1'
_cell_length_a   5.76565600
_cell_length_b   5.76565600
_cell_length_c   11.45870600
_cell_angle_alpha   90.00000000
_cell_angle_beta   90.00000000
_cell_angle_gamma   90.00000000
_symmetry_Int_Tables_number   1
_chemical_formula_structural   InGa(CuSe2)2
_chemical_formula_sum   'In2 Ga2 Cu4 Se8'
_cell_volume   380.91934704
_cell_formula_units_Z   2
loop_
 _symmetry_equiv_pos_site_id
 _symmetry_equiv_pos_as_xyz
  1  'x, y, z'
loop_
 _atom_type_symbol
 _atom_type_oxidation_number
  In3+  3.0
  Ga3+  3.0
  Cu+  1.0
  Se2-  -2.0
loop_
 _atom_site_type_symbol
 _atom_site_label
 _atom_site_symmetry_multiplicity
 _atom_site_fract_x
 _atom_site_fract_y
 _atom_site_fract_z
 _atom_site_occupancy
  In3+  In0  1  0.50000000  0.50000000  0.00000000  1
  In3+  In1  1  0.00000000  0.00000000  0.50000000  1
  Ga3+  Ga2  1  0.00000000  0.50000000  0.25000000  1
  Ga3+  Ga3  1  0.50000000  0.00000000  0.75000000  1
  Cu+  Cu4  1  0.50000000  0.00000000  0.25000000  1
  Cu+  Cu5  1  0.00000000  0.00000000  0.00000000  1
  Cu+  Cu6  1  0.00000000  0.50000000  0.75000000  1
  Cu+  Cu7  1  0.50000000  0.50000000  0.50000000  1
  Se2-  Se8  1  0.73224750  0.73525250  0.36862250  1
  Se2-  Se9  1  0.26775250  0.26474750  0.36862250  1
  Se2-  Se10  1  0.76474750  0.23224750  0.13137750  1
  Se2-  Se11  1  0.23525250  0.76775250  0.13137750  1
  Se2-  Se12  1  0.23224750  0.23525250  0.86862250  1
  Se2-  Se13  1  0.76775250  0.76474750  0.86862250  1
  Se2-  Se14  1  0.26474750  0.73224750  0.63137750  1
  Se2-  Se15  1  0.73525250  0.26775250  0.63137750  1
