data_image0
_cell_length_a       7.22194
_cell_length_b       7.22194
_cell_length_c       7.22194
_cell_angle_alpha    132.009
_cell_angle_beta     132.009
_cell_angle_gamma    70.2153

_symmetry_space_group_name_H-M    "P 1"
_symmetry_int_tables_number       1

loop_
  _symmetry_equiv_pos_as_xyz
  'x, y, z'

loop_
  _atom_site_label
  _atom_site_occupancy
  _atom_site_fract_x
  _atom_site_fract_y
  _atom_site_fract_z
  _atom_site_thermal_displace_type
  _atom_site_B_iso_or_equiv
  _atom_site_type_symbol
  In1      1.0000 0.50000  0.50000  1.00000  Biso   1.000  In
  In2      1.0000 0.25000  0.75000  0.50000  Biso   1.000  In
  Cu1      1.0000 0.00000  0.00000  1.00000  Biso   1.000  Cu
  Cu2      1.0000 0.75000  0.25000  0.50000  Biso   1.000  Cu
  Se1      1.0000 0.87500  0.90591  0.53091  Biso   1.000  Se
  Se2      1.0000 0.37500  0.34409  0.46909  Biso   1.000  Se
  Se3      1.0000 0.65591  0.12500  0.03091  Biso   1.000  Se
  Se4      1.0000 0.09409  0.62500  0.96909  Biso   1.000  Se
