data_image0
_cell_length_a       6.92066
_cell_length_b       6.92066
_cell_length_c       6.92066
_cell_angle_alpha    131.531
_cell_angle_beta     131.531
_cell_angle_gamma    70.9703

_symmetry_space_group_name_H-M    "P 1"
_symmetry_int_tables_number       1

loop_
  _symmetry_equiv_pos_as_xyz
  'x, y, z'

loop_
  _atom_site_label
  _atom_site_occupancy
  _atom_site_fract_x
  _atom_site_fract_y
  _atom_site_fract_z
  _atom_site_thermal_displace_type
  _atom_site_B_iso_or_equiv
  _atom_site_type_symbol
  Ga1      1.0000 0.50000  0.50000  1.00000  Biso   1.000  Ga
  Ga2      1.0000 0.25000  0.75000  0.50000  Biso   1.000  Ga
  Cu1      1.0000 0.00000  0.00000  1.00000  Biso   1.000  Cu
  Cu2      1.0000 0.75000  0.25000  0.50000  Biso   1.000  Cu
  Se1      1.0000 0.87500  0.88130  0.50630  Biso   1.000  Se
  Se2      1.0000 0.37500  0.36870  0.49370  Biso   1.000  Se
  Se3      1.0000 0.63130  0.12500  0.00630  Biso   1.000  Se
  Se4      1.0000 0.11870  0.62500  0.99370  Biso   1.000  Se
