data_image0
_cell_length_a       7.08518
_cell_length_b       7.08572
_cell_length_c       20.8237
_cell_angle_alpha    96.6878
_cell_angle_beta     96.6814
_cell_angle_gamma    48.0866

_symmetry_space_group_name_H-M    "P 1"
_symmetry_int_tables_number       1

loop_
  _symmetry_equiv_pos_as_xyz
  'x, y, z'

loop_
  _atom_site_label
  _atom_site_occupancy
  _atom_site_fract_x
  _atom_site_fract_y
  _atom_site_fract_z
  _atom_site_thermal_displace_type
  _atom_site_B_iso_or_equiv
  _atom_site_type_symbol
  In1      1.0000 0.12611  0.12548  0.62630  Biso   1.000  In
  Ga1      1.0000 0.43929  0.43502  0.68903  Biso   1.000  Ga
  Cu1      1.0000 0.49773  0.50246  0.50091  Biso   1.000  Cu
  Cu2      1.0000 0.81516  0.81049  0.56319  Biso   1.000  Cu
  Se1      1.0000 0.82819  0.36298  0.72539  Biso   1.000  Se
  Se2      1.0000 0.22345  0.69713  0.59228  Biso   1.000  Se
  Se3      1.0000 0.88813  0.42576  0.52755  Biso   1.000  Se
  Se4      1.0000 0.56071  0.01817  0.65873  Biso   1.000  Se
  In2      1.0000 0.87244  0.87564  0.37642  Biso   1.000  In
  Ga2      1.0000 0.18775  0.18804  0.43880  Biso   1.000  Ga
  Cu3      1.0000 0.24735  0.24565  0.24798  Biso   1.000  Cu
  Cu4      1.0000 0.56697  0.56517  0.31461  Biso   1.000  Cu
  Se5      1.0000 0.58084  0.10800  0.47646  Biso   1.000  Se
  Se6      1.0000 0.97877  0.44299  0.34099  Biso   1.000  Se
  Se7      1.0000 0.62251  0.19004  0.28130  Biso   1.000  Se
  Se8      1.0000 0.30514  0.77286  0.40879  Biso   1.000  Se
  Ga3      1.0000 0.62436  0.62456  0.12366  Biso   1.000  Ga
  In3      1.0000 0.93690  0.94000  0.18615  Biso   1.000  In
  Cu5      1.0000 0.00215  0.99718  0.99932  Biso   1.000  Cu
  Cu6      1.0000 0.31001  0.31485  0.06159  Biso   1.000  Cu
  Se9      1.0000 0.36956  0.83375  0.22158  Biso   1.000  Se
  Se10     1.0000 0.70461  0.23144  0.08608  Biso   1.000  Se
  Se11     1.0000 0.38676  0.92439  0.03503  Biso   1.000  Se
  Se12     1.0000 0.03961  0.50735  0.15377  Biso   1.000  Se
  Ga4      1.0000 0.37733  0.37332  0.87311  Biso   1.000  Ga
  In4      1.0000 0.68722  0.68632  0.93628  Biso   1.000  In
  Cu7      1.0000 0.75243  0.75448  0.75202  Biso   1.000  Cu
  Cu8      1.0000 0.05795  0.06017  0.81052  Biso   1.000  Cu
  Se13     1.0000 0.11577  0.58877  0.97011  Biso   1.000  Se
  Se14     1.0000 0.44962  0.98411  0.83713  Biso   1.000  Se
  Se15     1.0000 0.15102  0.66157  0.78113  Biso   1.000  Se
  Se16     1.0000 0.79418  0.25185  0.90379  Biso   1.000  Se
